Version 4
SHEET 1 1236 680
WIRE 64 0 32 0
WIRE 176 0 64 0
WIRE 256 0 176 0
WIRE 352 0 256 0
WIRE 640 0 608 0
WIRE 704 0 640 0
WIRE -608 32 -672 32
WIRE -448 32 -608 32
WIRE -208 32 -368 32
WIRE 32 32 32 0
WIRE 176 32 176 0
WIRE 640 48 640 0
WIRE 32 112 32 96
WIRE 32 112 -144 112
WIRE -672 144 -672 32
WIRE -208 144 -208 32
WIRE -144 144 -144 112
WIRE 704 144 704 0
WIRE 256 160 256 0
WIRE 480 176 480 96
WIRE 640 176 640 128
WIRE 640 176 480 176
WIRE 640 224 640 176
WIRE 640 240 640 224
WIRE -144 272 -144 224
WIRE 176 272 176 96
WIRE 176 272 -144 272
WIRE 32 320 32 112
WIRE 176 320 176 272
WIRE 32 336 32 320
WIRE 176 336 176 320
WIRE -672 384 -672 224
WIRE -496 384 -672 384
WIRE -208 384 -208 224
WIRE -208 384 -496 384
WIRE -176 384 -176 32
WIRE 32 384 32 352
WIRE 176 384 176 352
WIRE 32 416 32 384
WIRE 96 416 32 416
WIRE 176 416 176 384
WIRE 176 416 96 416
WIRE 256 416 256 224
WIRE 256 416 176 416
WIRE 640 416 640 304
WIRE 640 416 256 416
WIRE 704 416 704 224
WIRE 704 416 640 416
WIRE -496 448 -496 384
WIRE 96 448 96 416
FLAG -496 448 0
FLAG -608 32 Vin
FLAG 64 0 Vout
FLAG 96 448 0
SYMBOL Voltage -672 128 R0
SYMATTR InstName V1
SYMATTR Value SINE(0 120 60)
SYMBOL Res -464 48 R270
WINDOW 0 32 56 VTop 2
WINDOW 3 0 56 VBottom 2
SYMATTR InstName R1
SYMATTR Value .01
SYMBOL ind2 -192 240 R180
WINDOW 0 36 80 Left 2
WINDOW 3 36 40 Left 2
SYMATTR InstName L1
SYMATTR Value 144µ
SYMATTR Type ind
SYMBOL ind2 -160 128 R0
SYMATTR InstName L2
SYMATTR Value 1.0µ
SYMATTR Type ind
SYMBOL Res 688 128 R0
SYMATTR InstName R2
SYMATTR Value 5
SYMBOL schottky 48 96 R180
WINDOW 0 24 64 Left 2
WINDOW 3 24 0 Left 2
SYMATTR InstName D1
SYMATTR Value MBRS340
SYMATTR Description Diode
SYMATTR Type diode
SYMBOL schottky 192 96 R180
WINDOW 0 24 64 Left 2
WINDOW 3 24 0 Left 2
SYMATTR InstName D2
SYMATTR Value MBRS340
SYMATTR Description Diode
SYMATTR Type diode
SYMBOL schottky 48 384 R180
WINDOW 0 24 64 Left 2
WINDOW 3 24 0 Left 2
SYMATTR InstName D3
SYMATTR Value MBRS340
SYMATTR Description Diode
SYMATTR Type diode
SYMBOL schottky 192 384 R180
WINDOW 0 24 64 Left 2
WINDOW 3 24 0 Left 2
SYMATTR InstName D4
SYMATTR Value MBRS340
SYMATTR Description Diode
SYMATTR Type diode
SYMBOL Cap 240 160 R0
SYMATTR InstName C1
SYMATTR Value 5000µF
SYMBOL PowerProducts/LT1083 480 0 R0
SYMATTR InstName U1
SYMBOL Res 624 32 R0
SYMATTR InstName R3
SYMATTR Value 1k
SYMBOL Res 624 208 R0
SYMATTR InstName R4
SYMATTR Value 8.27k
TEXT -352 472 Left 2 !K1 L1 L2 1
TEXT -416 424 Left 2 !.tran 150m startup
