Version 4
SHEET 1 1236 680
WIRE -1168 -704 -1200 -704
WIRE -1056 -704 -1168 -704
WIRE -992 -704 -1056 -704
WIRE -688 -704 -992 -704
WIRE -608 -704 -688 -704
WIRE -432 -704 -496 -704
WIRE -416 -704 -432 -704
WIRE -288 -704 -368 -704
WIRE -208 -704 -288 -704
WIRE -128 -704 -208 -704
WIRE -1200 -672 -1200 -704
WIRE -1056 -672 -1056 -704
WIRE -688 -672 -688 -704
WIRE -288 -624 -288 -704
WIRE -208 -608 -208 -704
WIRE -608 -592 -608 -704
WIRE -496 -592 -496 -704
WIRE -1680 -560 -1744 -560
WIRE -1520 -560 -1680 -560
WIRE -1200 -560 -1200 -608
WIRE -1200 -560 -1440 -560
WIRE -688 -560 -688 -608
WIRE -688 -560 -768 -560
WIRE -992 -512 -992 -704
WIRE -768 -496 -768 -560
WIRE -688 -496 -688 -560
WIRE -544 -464 -544 -640
WIRE -1744 -448 -1744 -560
WIRE -768 -416 -768 -432
WIRE -688 -416 -768 -416
WIRE -608 -416 -608 -512
WIRE -608 -416 -688 -416
WIRE -496 -416 -496 -512
WIRE -288 -416 -288 -560
WIRE -288 -416 -496 -416
WIRE -208 -416 -208 -544
WIRE -208 -416 -288 -416
WIRE -128 -416 -208 -416
WIRE -768 -400 -768 -416
WIRE -1440 -304 -1440 -320
WIRE -1056 -304 -1056 -608
WIRE -1056 -304 -1440 -304
WIRE -1200 -240 -1200 -560
WIRE -1056 -240 -1056 -304
WIRE -1200 -224 -1200 -240
WIRE -1056 -224 -1056 -240
WIRE -1744 -208 -1744 -368
WIRE -1568 -208 -1744 -208
WIRE -1440 -208 -1440 -304
WIRE -1440 -208 -1568 -208
WIRE -1200 -176 -1200 -208
WIRE -1056 -176 -1056 -208
WIRE -1568 -144 -1568 -208
WIRE -1200 -144 -1200 -176
WIRE -1136 -144 -1200 -144
WIRE -1056 -144 -1056 -176
WIRE -1056 -144 -1136 -144
WIRE -992 -144 -992 -448
WIRE -992 -144 -1056 -144
WIRE -816 -144 -992 -144
WIRE -816 -128 -816 -144
WIRE -1136 -112 -1136 -144
FLAG -1568 -144 0
FLAG -1680 -560 Vin
FLAG -1168 -704 Vout
FLAG -1136 -112 0
SYMBOL Voltage -1744 -464 R0
SYMATTR InstName V1
SYMATTR Value SINE(0 120 60)
SYMBOL Res -1536 -544 R270
WINDOW 0 32 56 VTop 2
WINDOW 3 0 56 VBottom 2
SYMATTR InstName R1
SYMATTR Value .01
SYMBOL schottky -1184 -608 R180
WINDOW 0 24 64 Left 2
WINDOW 3 24 0 Left 2
SYMATTR InstName D1
SYMATTR Value MBRS340
SYMATTR Description Diode
SYMATTR Type diode
SYMBOL schottky -1040 -608 R180
WINDOW 0 24 64 Left 2
WINDOW 3 24 0 Left 2
SYMATTR InstName D2
SYMATTR Value MBRS340
SYMATTR Description Diode
SYMATTR Type diode
SYMBOL schottky -1184 -176 R180
WINDOW 0 24 64 Left 2
WINDOW 3 24 0 Left 2
SYMATTR InstName D3
SYMATTR Value MBRS340
SYMATTR Description Diode
SYMATTR Type diode
SYMBOL schottky -1040 -176 R180
WINDOW 0 24 64 Left 2
WINDOW 3 24 0 Left 2
SYMATTR InstName D4
SYMATTR Value MBRS340
SYMATTR Description Diode
SYMATTR Type diode
SYMBOL cap -1008 -512 R0
SYMATTR InstName C1
SYMATTR Value 10µF
SYMBOL ind2 -592 -496 R180
WINDOW 0 36 80 Left 2
WINDOW 3 36 40 Left 2
SYMATTR InstName L1
SYMATTR Type ind
SYMBOL ind2 -512 -608 R0
SYMATTR InstName L2
SYMATTR Type ind
SYMBOL diode -432 -688 R270
WINDOW 0 32 32 VTop 2
WINDOW 3 0 32 VBottom 2
SYMATTR InstName D5
SYMBOL res -704 -512 R0
SYMATTR InstName R2
SYMATTR Value 1
SYMBOL diode -672 -608 R180
WINDOW 0 24 64 Left 2
WINDOW 3 24 0 Left 2
SYMATTR InstName D6
SYMBOL cap -784 -496 R0
SYMATTR InstName C3
SYMATTR Value 1µF
SYMBOL cap -304 -624 R0
SYMATTR InstName C2
SYMATTR Value 1µF
SYMBOL cap -224 -608 R0
SYMATTR InstName C4
SYMATTR Value 1µF
TEXT -1808 -176 Left 2 !.tran 150m startup
TEXT -1760 -128 Left 2 !K1 L1 L2 1
