Version 4
SHEET 1 1236 680
WIRE -2416 -896 -2448 -896
WIRE -2304 -896 -2416 -896
WIRE -2240 -896 -2304 -896
WIRE -2448 -864 -2448 -896
WIRE -2304 -864 -2304 -896
WIRE -2768 -752 -2832 -752
WIRE -2608 -752 -2768 -752
WIRE -2448 -752 -2448 -800
WIRE -2448 -752 -2528 -752
WIRE -1360 -720 -1648 -720
WIRE -1200 -720 -1264 -720
WIRE -1104 -720 -1200 -720
WIRE -1008 -720 -1104 -720
WIRE -848 -720 -928 -720
WIRE -608 -720 -848 -720
WIRE -2240 -704 -2240 -896
WIRE -2832 -640 -2832 -752
WIRE -1280 -560 -1280 -672
WIRE -1200 -560 -1200 -720
WIRE -1648 -544 -1648 -720
WIRE -1104 -544 -1104 -720
WIRE -848 -528 -848 -720
WIRE -608 -512 -608 -720
WIRE -2528 -496 -2528 -512
WIRE -2304 -496 -2304 -800
WIRE -2304 -496 -2528 -496
WIRE -2448 -432 -2448 -752
WIRE -2304 -432 -2304 -496
WIRE -2448 -416 -2448 -432
WIRE -2304 -416 -2304 -432
WIRE -2832 -400 -2832 -560
WIRE -2656 -400 -2832 -400
WIRE -2528 -400 -2528 -496
WIRE -2528 -400 -2656 -400
WIRE -2448 -368 -2448 -400
WIRE -2304 -368 -2304 -400
WIRE -2656 -336 -2656 -400
WIRE -2448 -336 -2448 -368
WIRE -2384 -336 -2448 -336
WIRE -2304 -336 -2304 -368
WIRE -2304 -336 -2384 -336
WIRE -2240 -336 -2240 -640
WIRE -2240 -336 -2304 -336
WIRE -1104 -320 -1104 -480
WIRE -2384 -304 -2384 -336
WIRE -1648 -304 -1648 -464
WIRE -608 -304 -608 -432
WIRE -848 -288 -848 -464
WIRE -1584 96 -1648 96
WIRE -1568 96 -1584 96
WIRE -1440 96 -1520 96
WIRE -1360 96 -1440 96
WIRE -1280 96 -1360 96
WIRE -1440 176 -1440 96
WIRE -1360 192 -1360 96
WIRE -1760 208 -1760 96
WIRE -1648 208 -1648 96
WIRE -1696 336 -1696 160
WIRE -1760 384 -1760 288
WIRE -1648 384 -1648 288
WIRE -1440 384 -1440 240
WIRE -1440 384 -1648 384
WIRE -1360 384 -1360 256
WIRE -1360 384 -1440 384
WIRE -1280 384 -1360 384
FLAG -2656 -336 0
FLAG -2768 -752 Vin
FLAG -2416 -896 Vout
FLAG -2384 -304 0
FLAG -1648 -304 0
FLAG -1104 -320 0
FLAG -848 -288 0
FLAG -608 -304 0
SYMBOL Voltage -2832 -656 R0
SYMATTR InstName V1
SYMATTR Value SINE(0 120 60)
SYMBOL Res -2624 -736 R270
WINDOW 0 32 56 VTop 2
WINDOW 3 0 56 VBottom 2
SYMATTR InstName R1
SYMATTR Value .01
SYMBOL schottky -2432 -800 R180
WINDOW 0 24 64 Left 2
WINDOW 3 24 0 Left 2
SYMATTR InstName D1
SYMATTR Value MBRS340
SYMATTR Description Diode
SYMATTR Type diode
SYMBOL schottky -2288 -800 R180
WINDOW 0 24 64 Left 2
WINDOW 3 24 0 Left 2
SYMATTR InstName D2
SYMATTR Value MBRS340
SYMATTR Description Diode
SYMATTR Type diode
SYMBOL schottky -2432 -368 R180
WINDOW 0 24 64 Left 2
WINDOW 3 24 0 Left 2
SYMATTR InstName D3
SYMATTR Value MBRS340
SYMATTR Description Diode
SYMATTR Type diode
SYMBOL schottky -2288 -368 R180
WINDOW 0 24 64 Left 2
WINDOW 3 24 0 Left 2
SYMATTR InstName D4
SYMATTR Value MBRS340
SYMATTR Description Diode
SYMATTR Type diode
SYMBOL cap -2256 -704 R0
SYMATTR InstName C1
SYMATTR Value 10µF
SYMBOL ind2 -1744 304 R180
WINDOW 0 36 80 Left 2
WINDOW 3 36 40 Left 2
SYMATTR InstName L1
SYMATTR Type ind
SYMBOL ind2 -1664 192 R0
SYMATTR InstName L2
SYMATTR Type ind
SYMBOL diode -1584 112 R270
WINDOW 0 32 32 VTop 2
WINDOW 3 0 32 VBottom 2
SYMATTR InstName D5
SYMBOL cap -1456 176 R0
SYMATTR InstName C2
SYMATTR Value 1µF
SYMBOL cap -1376 192 R0
SYMATTR InstName C4
SYMATTR Value 1µF
SYMBOL nmos -1360 -672 R270
SYMATTR InstName M2
SYMATTR Value IRFH5300
SYMBOL schottky -1088 -480 R180
WINDOW 0 24 64 Left 2
WINDOW 3 24 0 Left 2
SYMATTR InstName D7
SYMATTR Value MBR745
SYMATTR Description Diode
SYMATTR Type diode
SYMBOL ind -1024 -704 R270
WINDOW 0 32 56 VTop 2
WINDOW 3 5 56 VBottom 2
SYMATTR InstName L3
SYMATTR Value 100µ
SYMBOL cap -864 -528 R0
SYMATTR InstName C3
SYMATTR Value 100µ
SYMBOL res -624 -528 R0
SYMATTR InstName R2
SYMATTR Value 6
SYMBOL voltage -1648 -560 R0
WINDOW 123 0 0 Left 0
WINDOW 39 0 0 Left 0
SYMATTR InstName V2
SYMATTR Value 12
SYMBOL voltage -1296 -560 R270
WINDOW 0 32 56 VTop 2
WINDOW 3 -32 56 VBottom 2
SYMATTR InstName V3
TEXT -2896 -368 Left 2 !.tran 150m startup
TEXT -2848 -320 Left 2 !K1 L1 L2 1
