Version 4
SHEET 1 1236 680
WIRE -3184 -800 -3216 -800
WIRE -3072 -800 -3184 -800
WIRE -3008 -800 -3072 -800
WIRE -3216 -768 -3216 -800
WIRE -3072 -768 -3072 -800
WIRE -2464 -736 -2752 -736
WIRE -2304 -736 -2368 -736
WIRE -2208 -736 -2304 -736
WIRE -2112 -736 -2208 -736
WIRE -1952 -736 -2032 -736
WIRE -1712 -736 -1952 -736
WIRE -3536 -656 -3600 -656
WIRE -3376 -656 -3536 -656
WIRE -3216 -656 -3216 -704
WIRE -3216 -656 -3296 -656
WIRE -3008 -608 -3008 -800
WIRE -2384 -576 -2384 -688
WIRE -2304 -576 -2304 -736
WIRE -2752 -560 -2752 -736
WIRE -2208 -560 -2208 -736
WIRE -3600 -544 -3600 -656
WIRE -1952 -544 -1952 -736
WIRE -1712 -528 -1712 -736
WIRE -3296 -400 -3296 -416
WIRE -3072 -400 -3072 -704
WIRE -3072 -400 -3296 -400
WIRE -3216 -336 -3216 -656
WIRE -3072 -336 -3072 -400
WIRE -2208 -336 -2208 -496
WIRE -3216 -320 -3216 -336
WIRE -3072 -320 -3072 -336
WIRE -2752 -320 -2752 -480
WIRE -1712 -320 -1712 -448
WIRE -3600 -304 -3600 -464
WIRE -3424 -304 -3600 -304
WIRE -3296 -304 -3296 -400
WIRE -3296 -304 -3424 -304
WIRE -1952 -304 -1952 -480
WIRE -3216 -272 -3216 -304
WIRE -3072 -272 -3072 -304
WIRE -3424 -240 -3424 -304
WIRE -3216 -240 -3216 -272
WIRE -3152 -240 -3216 -240
WIRE -3072 -240 -3072 -272
WIRE -3072 -240 -3152 -240
WIRE -3008 -240 -3008 -544
WIRE -3008 -240 -3072 -240
WIRE -3152 -208 -3152 -240
WIRE -1280 384 -1648 384
FLAG -2752 -320 0
FLAG -2208 -336 0
FLAG -1952 -304 0
FLAG -1712 -320 0
FLAG -3424 -240 0
FLAG -3536 -656 Vin
FLAG -3184 -800 Vout
FLAG -3152 -208 0
SYMBOL nmos -2464 -688 R270
SYMATTR InstName M2
SYMATTR Value IRFH5300
SYMBOL schottky -2192 -496 R180
WINDOW 0 24 64 Left 2
WINDOW 3 24 0 Left 2
SYMATTR InstName D7
SYMATTR Value MBR745
SYMATTR Description Diode
SYMATTR Type diode
SYMBOL ind -2128 -720 R270
WINDOW 0 32 56 VTop 2
WINDOW 3 5 56 VBottom 2
SYMATTR InstName L3
SYMATTR Value 100µ
SYMBOL cap -1968 -544 R0
SYMATTR InstName C3
SYMATTR Value 100µ
SYMBOL res -1728 -544 R0
SYMATTR InstName R2
SYMATTR Value 5
SYMBOL voltage -2752 -576 R0
WINDOW 123 0 0 Left 0
WINDOW 39 0 0 Left 0
SYMATTR InstName V2
SYMATTR Value 12
SYMBOL voltage -2400 -576 R270
WINDOW 0 32 56 VTop 2
WINDOW 3 -45 -56 VBottom 2
WINDOW 123 0 0 Left 0
WINDOW 39 0 0 Left 0
SYMATTR InstName V3
SYMATTR Value PULSE(0 10 0 1n 1n 5u 10u)
SYMBOL Voltage -3600 -560 R0
SYMATTR InstName V1
SYMATTR Value SINE(0 120 60)
SYMBOL Res -3392 -640 R270
WINDOW 0 32 56 VTop 2
WINDOW 3 0 56 VBottom 2
SYMATTR InstName R1
SYMATTR Value .01
SYMBOL schottky -3200 -704 R180
WINDOW 0 24 64 Left 2
WINDOW 3 24 0 Left 2
SYMATTR InstName D1
SYMATTR Value MBRS340
SYMATTR Description Diode
SYMATTR Type diode
SYMBOL schottky -3056 -704 R180
WINDOW 0 24 64 Left 2
WINDOW 3 24 0 Left 2
SYMATTR InstName D2
SYMATTR Value MBRS340
SYMATTR Description Diode
SYMATTR Type diode
SYMBOL schottky -3200 -272 R180
WINDOW 0 24 64 Left 2
WINDOW 3 24 0 Left 2
SYMATTR InstName D3
SYMATTR Value MBRS340
SYMATTR Description Diode
SYMATTR Type diode
SYMBOL schottky -3056 -272 R180
WINDOW 0 24 64 Left 2
WINDOW 3 24 0 Left 2
SYMATTR InstName D4
SYMATTR Value MBRS340
SYMATTR Description Diode
SYMATTR Type diode
SYMBOL cap -3024 -608 R0
SYMATTR InstName C1
SYMATTR Value 10µF
TEXT -2616 -456 Left 2 !.tran 0 10m 0 100n
TEXT -2656 -752 Left 2 ;in
TEXT -2360 -760 Left 2 ;sw
TEXT -1856 -752 Left 2 ;out
TEXT -3664 -272 Left 2 !.tran 150m startup
TEXT -3616 -224 Left 2 !K1 L1 L2 1
